data_image0
_cell_length_a       2.8429
_cell_length_b       2.8429
_cell_length_c       15
_cell_angle_alpha    90
_cell_angle_beta     90
_cell_angle_gamma    120

_symmetry_space_group_name_H-M    "P 1"
_symmetry_int_tables_number       1

loop_
  _symmetry_equiv_pos_as_xyz
  'x, y, z'

loop_
  _atom_site_label
  _atom_site_occupancy
  _atom_site_fract_x
  _atom_site_fract_y
  _atom_site_fract_z
  _atom_site_thermal_displace_type
  _atom_site_B_iso_or_equiv
  _atom_site_type_symbol
  Co1      1.0000 0.66671  0.33329  0.17922  Biso   1.000  Co
  O1       1.0000 0.33335  0.66665  0.11801  Biso   1.000  O
  O2       1.0000 0.99999  0.00001  0.26287  Biso   1.000  O
  Li1      1.0000 0.33336  0.66664  0.31386  Biso   1.000  Li
